! This hub-height wind-speed file was generated by TurbSim (v1.06.00, 21-Sep-2012) on 26-Jun-2017 at 11:25:50.
!
! The requested statistics for this data were:
!    Mean Total Wind Speed =    7.001 m/s
!    Turbulence Intensity  =   24.798%
!
!   Time  HorSpd  WndDir  VerSpd  HorShr  VerShr  LnVShr  GstSpd
!  (sec)   (m/s)   (deg)   (m/s)     (-)     (-)     (-)   (m/s)
   0.000    6.49    0.84    0.88   0.000   0.200   0.000    0.00
   0.500    6.01   11.14    0.77   0.000   0.200   0.000    0.00
   1.000    5.91   17.28    0.75   0.000   0.200   0.000    0.00
   1.500    6.11   19.09    0.68   0.000   0.200   0.000    0.00
   2.000    5.78   11.67    0.69   0.000   0.200   0.000    0.00
   2.500    5.53   13.32    0.44   0.000   0.200   0.000    0.00
   3.000    5.86   16.56    0.70   0.000   0.200   0.000    0.00
   3.500    5.26   11.89    0.77   0.000   0.200   0.000    0.00
   4.000    5.16   16.90    0.79   0.000   0.200   0.000    0.00
   4.500    4.50   17.95    1.04   0.000   0.200   0.000    0.00
   5.000    5.48   19.43    1.36   0.000   0.200   0.000    0.00
   5.500    5.30   16.71    1.27   0.000   0.200   0.000    0.00
   6.000    5.71   14.51    0.79   0.000   0.200   0.000    0.00
   6.500    5.56   11.43    0.63   0.000   0.200   0.000    0.00
   7.000    5.06   14.68   -0.11   0.000   0.200   0.000    0.00
   7.500    4.97    2.11    0.05   0.000   0.200   0.000    0.00
   8.000    4.87    4.10    0.33   0.000   0.200   0.000    0.00
   8.500    4.75   -2.74    0.20   0.000   0.200   0.000    0.00
   9.000    4.87    5.72    0.46   0.000   0.200   0.000    0.00
   9.500    5.52    9.65   -0.76   0.000   0.200   0.000    0.00
  10.000    5.08    3.86   -0.76   0.000   0.200   0.000    0.00
  10.500    5.94    9.80    0.03   0.000   0.200   0.000    0.00
  11.000    5.05   12.08   -0.28   0.000   0.200   0.000    0.00
  11.500    4.56   16.79    0.57   0.000   0.200   0.000    0.00
  12.000    4.71   11.14    0.72   0.000   0.200   0.000    0.00
  12.500    4.25   14.55    0.83   0.000   0.200   0.000    0.00
  13.000    3.91   13.05    0.53   0.000   0.200   0.000    0.00
  13.500    3.35   15.25    0.55   0.000   0.200   0.000    0.00
  14.000    3.14   13.87   -0.59   0.000   0.200   0.000    0.00
  14.500    4.09    4.99   -0.82   0.000   0.200   0.000    0.00
  15.000    3.97    2.57   -0.74   0.000   0.200   0.000    0.00
  15.500    4.24  -16.82   -1.09   0.000   0.200   0.000    0.00
  16.000    4.68  -16.68   -1.06   0.000   0.200   0.000    0.00
  16.500    4.66  -23.32   -0.55   0.000   0.200   0.000    0.00
  17.000    5.43  -28.34   -0.44   0.000   0.200   0.000    0.00
  17.500    5.45  -22.96   -0.11   0.000   0.200   0.000    0.00
  18.000    5.18  -10.61    0.09   0.000   0.200   0.000    0.00
  18.500    5.08  -18.23   -0.19   0.000   0.200   0.000    0.00
  19.000    4.84  -22.76    0.24   0.000   0.200   0.000    0.00
  19.500    5.16  -28.50    0.84   0.000   0.200   0.000    0.00
  20.000    6.04  -19.90    0.69   0.000   0.200   0.000    0.00
  20.500    6.37  -30.16    0.03   0.000   0.200   0.000    0.00
  21.000    5.75  -31.37   -0.06   0.000   0.200   0.000    0.00
  21.500    4.31  -19.95    0.48   0.000   0.200   0.000    0.00
  22.000    3.95  -17.25    0.19   0.000   0.200   0.000    0.00
  22.500    4.27  -21.41    0.17   0.000   0.200   0.000    0.00
  23.000    4.93  -26.30   -0.68   0.000   0.200   0.000    0.00
  23.500    5.12  -28.19   -0.85   0.000   0.200   0.000    0.00
  24.000    5.06  -27.75   -1.15   0.000   0.200   0.000    0.00
  24.500    4.00  -19.49   -1.28   0.000   0.200   0.000    0.00
  25.000    4.36  -12.47   -1.11   0.000   0.200   0.000    0.00
  25.500    5.17  -14.43   -0.49   0.000   0.200   0.000    0.00
  26.000    5.77  -13.04   -1.49   0.000   0.200   0.000    0.00
  26.500    5.55   -0.62   -1.52   0.000   0.200   0.000    0.00
  27.000    5.75    7.13   -1.12   0.000   0.200   0.000    0.00
  27.500    6.24    4.96   -1.22   0.000   0.200   0.000    0.00
  28.000    6.01    8.90   -1.06   0.000   0.200   0.000    0.00
  28.500    6.37   -0.14   -0.30   0.000   0.200   0.000    0.00
  29.000    7.05   -9.02    0.58   0.000   0.200   0.000    0.00
  29.500    6.76   -6.54    0.22   0.000   0.200   0.000    0.00
  30.000    6.86   -7.92    0.11   0.000   0.200   0.000    0.00
  30.500    7.49   -6.42    0.37   0.000   0.200   0.000    0.00
  31.000    6.77   -7.12    0.18   0.000   0.200   0.000    0.00
  31.500    5.61   -0.07    0.57   0.000   0.200   0.000    0.00
  32.000    5.85   -2.89    0.70   0.000   0.200   0.000    0.00
  32.500    5.11   -6.88    0.82   0.000   0.200   0.000    0.00
  33.000    5.14  -16.90    1.43   0.000   0.200   0.000    0.00
  33.500    5.48  -26.20    1.58   0.000   0.200   0.000    0.00
  34.000    4.71  -31.16    0.80   0.000   0.200   0.000    0.00
  34.500    4.65  -26.57    0.81   0.000   0.200   0.000    0.00
  35.000    5.40  -21.80    0.44   0.000   0.200   0.000    0.00
  35.500    6.44  -21.30   -0.24   0.000   0.200   0.000    0.00
  36.000    7.20  -23.35    0.73   0.000   0.200   0.000    0.00
  36.500    6.93  -19.32    1.18   0.000   0.200   0.000    0.00
  37.000    7.09  -14.10    1.47   0.000   0.200   0.000    0.00
  37.500    6.16  -12.65    0.45   0.000   0.200   0.000    0.00
  38.000    5.87  -13.42    0.97   0.000   0.200   0.000    0.00
  38.500    5.83  -10.71    0.64   0.000   0.200   0.000    0.00
  39.000    6.05   -5.80    0.23   0.000   0.200   0.000    0.00
  39.500    6.19  -10.50    0.82   0.000   0.200   0.000    0.00
  40.000    6.49   -8.85    1.30   0.000   0.200   0.000    0.00
  40.500    7.16  -14.35    1.40   0.000   0.200   0.000    0.00
  41.000    7.36  -13.64    0.86   0.000   0.200   0.000    0.00
  41.500    6.60  -10.97    0.50   0.000   0.200   0.000    0.00
  42.000    6.63  -10.79    0.17   0.000   0.200   0.000    0.00
  42.500    6.52   -3.64    0.22   0.000   0.200   0.000    0.00
  43.000    6.30   -6.36    0.50   0.000   0.200   0.000    0.00
  43.500    5.69    1.15    0.00   0.000   0.200   0.000    0.00
  44.000    6.01    1.72   -0.11   0.000   0.200   0.000    0.00
  44.500    6.40    6.03    0.03   0.000   0.200   0.000    0.00
  45.000    6.30    3.42    0.08   0.000   0.200   0.000    0.00
  45.500    6.38   -3.32    0.35   0.000   0.200   0.000    0.00
  46.000    6.82   -2.51    0.28   0.000   0.200   0.000    0.00
  46.500    5.99   -7.85    0.34   0.000   0.200   0.000    0.00
  47.000    5.59   -9.33    0.78   0.000   0.200   0.000    0.00
  47.500    5.32   -8.45    0.76   0.000   0.200   0.000    0.00
  48.000    6.02  -12.36    1.04   0.000   0.200   0.000    0.00
  48.500    6.14   -8.15    1.10   0.000   0.200   0.000    0.00
  49.000    5.79   -6.64    0.29   0.000   0.200   0.000    0.00
  49.500    5.34   -5.86    0.95   0.000   0.200   0.000    0.00
  50.000    5.76   -4.03    0.49   0.000   0.200   0.000    0.00
  50.500    6.36   -4.35    0.38   0.000   0.200   0.000    0.00
  51.000    6.69   -2.19    0.34   0.000   0.200   0.000    0.00
  51.500    6.33   -0.35    0.26   0.000   0.200   0.000    0.00
  52.000    6.86    4.87    0.29   0.000   0.200   0.000    0.00
  52.500    6.67   13.89    0.26   0.000   0.200   0.000    0.00
  53.000    6.29    9.91    0.92   0.000   0.200   0.000    0.00
  53.500    5.62   13.27    0.59   0.000   0.200   0.000    0.00
  54.000    5.17    6.90    0.61   0.000   0.200   0.000    0.00
  54.500    5.64   -0.63    1.11   0.000   0.200   0.000    0.00
  55.000    6.81    3.75    0.74   0.000   0.200   0.000    0.00
  55.500    6.55    0.71    0.78   0.000   0.200   0.000    0.00
  56.000    6.74    7.16   -0.11   0.000   0.200   0.000    0.00
  56.500    7.49    4.12   -0.36   0.000   0.200   0.000    0.00
  57.000    7.51    4.56   -0.64   0.000   0.200   0.000    0.00
  57.500    7.28    9.48   -0.20   0.000   0.200   0.000    0.00
  58.000    6.32   -1.95   -0.04   0.000   0.200   0.000    0.00
  58.500    5.77  -10.68   -0.53   0.000   0.200   0.000    0.00
  59.000    6.42   -8.73   -0.28   0.000   0.200   0.000    0.00
  59.500    5.48   -5.11    0.33   0.000   0.200   0.000    0.00
  60.000    6.05    3.10    0.65   0.000   0.200   0.000    0.00
  60.500    6.48   -5.32    1.48   0.000   0.200   0.000    0.00
  61.000    6.49  -12.07    2.08   0.000   0.200   0.000    0.00
  61.500    6.71   -0.43    1.51   0.000   0.200   0.000    0.00
  62.000    6.96    0.80    0.82   0.000   0.200   0.000    0.00
  62.500    6.62    0.14    1.05   0.000   0.200   0.000    0.00
  63.000    6.26    1.49    0.69   0.000   0.200   0.000    0.00
  63.500    6.74   12.83    1.27   0.000   0.200   0.000    0.00
  64.000    6.38   11.29   -0.02   0.000   0.200   0.000    0.00
  64.500    6.35    9.41   -0.27   0.000   0.200   0.000    0.00
  65.000    5.66   13.10    0.76   0.000   0.200   0.000    0.00
  65.500    5.05    3.64   -0.56   0.000   0.200   0.000    0.00
  66.000    4.72   -3.69   -0.43   0.000   0.200   0.000    0.00
  66.500    5.47   -3.43   -0.48   0.000   0.200   0.000    0.00
  67.000    5.78    3.67   -0.98   0.000   0.200   0.000    0.00
  67.500    5.77   -5.49   -1.37   0.000   0.200   0.000    0.00
  68.000    6.19    4.55   -1.12   0.000   0.200   0.000    0.00
  68.500    6.09    1.36   -0.87   0.000   0.200   0.000    0.00
  69.000    6.48    7.05   -0.25   0.000   0.200   0.000    0.00
  69.500    6.68    3.56    0.02   0.000   0.200   0.000    0.00
  70.000    6.44   -0.60    0.07   0.000   0.200   0.000    0.00
  70.500    6.00    1.03    0.05   0.000   0.200   0.000    0.00
  71.000    5.95   -3.71    0.16   0.000   0.200   0.000    0.00
  71.500    6.29    0.18    0.43   0.000   0.200   0.000    0.00
  72.000    6.49    9.17    0.63   0.000   0.200   0.000    0.00
  72.500    7.11    3.54    0.55   0.000   0.200   0.000    0.00
  73.000    6.76    4.26    0.94   0.000   0.200   0.000    0.00
  73.500    6.81    3.48   -0.13   0.000   0.200   0.000    0.00
  74.000    7.67   -0.66    0.21   0.000   0.200   0.000    0.00
  74.500    7.56   -1.74   -0.47   0.000   0.200   0.000    0.00
  75.000    7.28    1.49    0.54   0.000   0.200   0.000    0.00
  75.500    7.85    2.89    0.64   0.000   0.200   0.000    0.00
  76.000    6.94    2.03   -0.36   0.000   0.200   0.000    0.00
  76.500    7.09    3.00   -0.34   0.000   0.200   0.000    0.00
  77.000    6.96   -2.49   -0.71   0.000   0.200   0.000    0.00
  77.500    7.59    0.62   -1.09   0.000   0.200   0.000    0.00
  78.000    7.72    7.21   -0.82   0.000   0.200   0.000    0.00
  78.500    7.55    1.27   -1.23   0.000   0.200   0.000    0.00
  79.000    7.05   -8.35   -1.14   0.000   0.200   0.000    0.00
  79.500    6.62  -11.54   -1.25   0.000   0.200   0.000    0.00
  80.000    6.55   -4.49   -1.41   0.000   0.200   0.000    0.00
  80.500    5.92  -13.25   -1.25   0.000   0.200   0.000    0.00
  81.000    6.21  -13.68   -0.04   0.000   0.200   0.000    0.00
  81.500    5.83   -4.52   -0.29   0.000   0.200   0.000    0.00
  82.000    6.05  -17.92    0.06   0.000   0.200   0.000    0.00
  82.500    6.95  -13.12    0.21   0.000   0.200   0.000    0.00
  83.000    7.15   -7.63    0.18   0.000   0.200   0.000    0.00
  83.500    6.55   -5.86    0.57   0.000   0.200   0.000    0.00
  84.000    6.50  -14.92    0.82   0.000   0.200   0.000    0.00
  84.500    6.31   -7.92    1.33   0.000   0.200   0.000    0.00
  85.000    6.45   -3.75    1.20   0.000   0.200   0.000    0.00
  85.500    6.62   -2.28    0.54   0.000   0.200   0.000    0.00
  86.000    6.16   -0.31    0.68   0.000   0.200   0.000    0.00
  86.500    6.24   -9.01    0.70   0.000   0.200   0.000    0.00
  87.000    6.55   -3.95    0.08   0.000   0.200   0.000    0.00
  87.500    7.38   -1.60    0.84   0.000   0.200   0.000    0.00
  88.000    7.49   -1.11    0.26   0.000   0.200   0.000    0.00
  88.500    7.77   -4.17    1.29   0.000   0.200   0.000    0.00
  89.000    8.16    3.60    1.30   0.000   0.200   0.000    0.00
  89.500    9.31    4.24    0.24   0.000   0.200   0.000    0.00
  90.000    9.43    5.36    0.18   0.000   0.200   0.000    0.00
  90.500    8.10    2.19   -0.10   0.000   0.200   0.000    0.00
  91.000    8.14    7.49   -0.73   0.000   0.200   0.000    0.00
  91.500    8.45    3.71    0.10   0.000   0.200   0.000    0.00
  92.000    8.43    3.44    0.52   0.000   0.200   0.000    0.00
  92.500    7.59    1.63   -0.09   0.000   0.200   0.000    0.00
  93.000    7.69    4.53    0.01   0.000   0.200   0.000    0.00
  93.500    8.01    9.17   -0.28   0.000   0.200   0.000    0.00
  94.000    8.09    6.59   -0.69   0.000   0.200   0.000    0.00
  94.500    7.08    4.97   -0.98   0.000   0.200   0.000    0.00
  95.000    6.31    8.98   -0.02   0.000   0.200   0.000    0.00
  95.500    6.89   12.19    0.54   0.000   0.200   0.000    0.00
  96.000    7.61   15.06    0.63   0.000   0.200   0.000    0.00
  96.500    7.80   16.98   -0.69   0.000   0.200   0.000    0.00
  97.000    7.70   13.62   -0.60   0.000   0.200   0.000    0.00
  97.500    7.32   12.95   -0.28   0.000   0.200   0.000    0.00
  98.000    7.50    9.45   -0.56   0.000   0.200   0.000    0.00
  98.500    7.50    8.22   -0.93   0.000   0.200   0.000    0.00
  99.000    6.83   12.31   -0.63   0.000   0.200   0.000    0.00
  99.500    7.94   17.24   -0.11   0.000   0.200   0.000    0.00
 100.000    7.37    6.35   -0.26   0.000   0.200   0.000    0.00
 100.500    7.98    1.92   -0.83   0.000   0.200   0.000    0.00
 101.000    8.40    0.42   -0.29   0.000   0.200   0.000    0.00
 101.500    8.70   -8.01   -0.78   0.000   0.200   0.000    0.00
 102.000    8.84  -10.17   -0.42   0.000   0.200   0.000    0.00
 102.500    8.67   -7.33    0.02   0.000   0.200   0.000    0.00
 103.000    8.98   -3.51   -1.00   0.000   0.200   0.000    0.00
 103.500    8.63    2.86   -1.01   0.000   0.200   0.000    0.00
 104.000    7.33   -2.48   -1.60   0.000   0.200   0.000    0.00
 104.500    7.39    1.62   -0.98   0.000   0.200   0.000    0.00
 105.000    8.23    5.10   -1.56   0.000   0.200   0.000    0.00
 105.500    7.92    8.27   -2.12   0.000   0.200   0.000    0.00
 106.000    7.35    4.50   -0.89   0.000   0.200   0.000    0.00
 106.500    7.76    6.17   -1.15   0.000   0.200   0.000    0.00
 107.000    7.51    5.35   -1.19   0.000   0.200   0.000    0.00
 107.500    8.25   -5.10   -0.64   0.000   0.200   0.000    0.00
 108.000    7.67   -4.91   -0.84   0.000   0.200   0.000    0.00
 108.500    7.20   -4.70   -0.80   0.000   0.200   0.000    0.00
 109.000    7.10   -2.21   -1.54   0.000   0.200   0.000    0.00
 109.500    6.78    0.52   -2.08   0.000   0.200   0.000    0.00
 110.000    6.90    3.28   -1.45   0.000   0.200   0.000    0.00
 110.500    7.55   -1.68   -1.37   0.000   0.200   0.000    0.00
 111.000    7.52  -10.27   -0.74   0.000   0.200   0.000    0.00
 111.500    7.31   -9.54   -0.38   0.000   0.200   0.000    0.00
 112.000    7.29  -12.44   -0.89   0.000   0.200   0.000    0.00
 112.500    7.23   -3.17   -0.30   0.000   0.200   0.000    0.00
 113.000    7.31    2.41   -0.37   0.000   0.200   0.000    0.00
 113.500    7.29   -6.70    0.17   0.000   0.200   0.000    0.00
 114.000    7.37   -7.88    0.24   0.000   0.200   0.000    0.00
 114.500    7.27   -2.44    0.76   0.000   0.200   0.000    0.00
 115.000    7.94    3.96    1.02   0.000   0.200   0.000    0.00
 115.500    8.04    9.02    0.40   0.000   0.200   0.000    0.00
 116.000    9.20    8.31    0.27   0.000   0.200   0.000    0.00
 116.500    9.30    7.21    0.06   0.000   0.200   0.000    0.00
 117.000    9.33    9.51    0.14   0.000   0.200   0.000    0.00
 117.500    9.58    8.67    0.58   0.000   0.200   0.000    0.00
 118.000    8.94   11.98    0.37   0.000   0.200   0.000    0.00
 118.500    8.31    5.74   -0.10   0.000   0.200   0.000    0.00
 119.000    8.50    4.50    0.69   0.000   0.200   0.000    0.00
 119.500    8.86    8.55    0.56   0.000   0.200   0.000    0.00
 120.000    9.41    4.83    0.84   0.000   0.200   0.000    0.00
 120.500    9.51    7.76    0.98   0.000   0.200   0.000    0.00
 121.000    8.98   13.36    1.27   0.000   0.200   0.000    0.00
 121.500    9.87   14.61    1.93   0.000   0.200   0.000    0.00
 122.000    9.13   10.63    0.60   0.000   0.200   0.000    0.00
 122.500    8.46    9.08    0.44   0.000   0.200   0.000    0.00
 123.000    8.29    4.06    0.82   0.000   0.200   0.000    0.00
 123.500    8.50    3.90    0.28   0.000   0.200   0.000    0.00
 124.000    8.83    7.00   -0.26   0.000   0.200   0.000    0.00
 124.500    9.16    9.52   -0.46   0.000   0.200   0.000    0.00
 125.000    9.17   10.31    0.07   0.000   0.200   0.000    0.00
 125.500    8.78    9.68   -0.81   0.000   0.200   0.000    0.00
 126.000    8.97    4.28   -0.69   0.000   0.200   0.000    0.00
 126.500    8.62   -2.04   -0.36   0.000   0.200   0.000    0.00
 127.000    8.06    0.79    0.15   0.000   0.200   0.000    0.00
 127.500    8.71    0.16   -0.28   0.000   0.200   0.000    0.00
 128.000    8.57   -0.80   -0.06   0.000   0.200   0.000    0.00
 128.500    8.84    0.63    0.07   0.000   0.200   0.000    0.00
 129.000    9.80    5.99    0.35   0.000   0.200   0.000    0.00
 129.500    9.94   12.32    0.66   0.000   0.200   0.000    0.00
 130.000    9.74    7.59    0.11   0.000   0.200   0.000    0.00
 130.500    8.83   11.04    0.00   0.000   0.200   0.000    0.00
 131.000    8.92    7.67   -0.06   0.000   0.200   0.000    0.00
 131.500    8.95   12.49    0.22   0.000   0.200   0.000    0.00
 132.000    8.65   14.15   -0.31   0.000   0.200   0.000    0.00
 132.500    8.87   14.68   -0.86   0.000   0.200   0.000    0.00
 133.000    9.14   18.75   -0.47   0.000   0.200   0.000    0.00
 133.500    9.12   12.40   -0.53   0.000   0.200   0.000    0.00
 134.000    8.97   11.25   -0.83   0.000   0.200   0.000    0.00
 134.500    9.06    9.79   -1.24   0.000   0.200   0.000    0.00
 135.000    7.54    7.63   -1.34   0.000   0.200   0.000    0.00
 135.500    7.23    4.64   -0.91   0.000   0.200   0.000    0.00
 136.000    8.00   -1.15   -0.52   0.000   0.200   0.000    0.00
 136.500    8.50   -6.67   -0.05   0.000   0.200   0.000    0.00
 137.000    8.31   -0.86   -0.40   0.000   0.200   0.000    0.00
 137.500    8.27    0.32   -0.36   0.000   0.200   0.000    0.00
 138.000    8.47   -0.85   -0.59   0.000   0.200   0.000    0.00
 138.500    8.78   -3.01    0.34   0.000   0.200   0.000    0.00
 139.000    8.41   -4.32    0.29   0.000   0.200   0.000    0.00
 139.500    8.08   -1.29    0.06   0.000   0.200   0.000    0.00
 140.000    7.65    3.27    0.23   0.000   0.200   0.000    0.00
 140.500    7.50    0.37    1.20   0.000   0.200   0.000    0.00
 141.000    8.33    2.69    0.39   0.000   0.200   0.000    0.00
 141.500    7.67    1.26    0.23   0.000   0.200   0.000    0.00
 142.000    7.40    8.37    1.04   0.000   0.200   0.000    0.00
 142.500    7.39    9.10    1.14   0.000   0.200   0.000    0.00
 143.000    6.69   15.17    0.89   0.000   0.200   0.000    0.00
 143.500    6.45   23.78    0.38   0.000   0.200   0.000    0.00
 144.000    6.84   24.83   -0.10   0.000   0.200   0.000    0.00
 144.500    7.29   23.31   -0.29   0.000   0.200   0.000    0.00
 145.000    7.05   15.56   -0.77   0.000   0.200   0.000    0.00
 145.500    6.44   14.50   -0.82   0.000   0.200   0.000    0.00
 146.000    7.15    8.02   -0.23   0.000   0.200   0.000    0.00
 146.500    7.74   14.90    0.53   0.000   0.200   0.000    0.00
 147.000    6.40   13.57    0.19   0.000   0.200   0.000    0.00
 147.500    6.32   11.09    0.04   0.000   0.200   0.000    0.00
 148.000    6.56   11.60    0.17   0.000   0.200   0.000    0.00
 148.500    7.25   19.35    1.23   0.000   0.200   0.000    0.00
 149.000    7.69   14.50    1.18   0.000   0.200   0.000    0.00
 149.500    6.90   16.50    0.95   0.000   0.200   0.000    0.00
 150.000    7.18   14.58    0.21   0.000   0.200   0.000    0.00
 150.500    7.55   12.67   -0.94   0.000   0.200   0.000    0.00
 151.000    7.17   13.07   -0.71   0.000   0.200   0.000    0.00
 151.500    7.21   12.42   -0.78   0.000   0.200   0.000    0.00
 152.000    6.86   18.07   -0.33   0.000   0.200   0.000    0.00
 152.500    7.16   24.37   -0.45   0.000   0.200   0.000    0.00
 153.000    6.76   22.23    0.27   0.000   0.200   0.000    0.00
 153.500    6.64   28.22    0.10   0.000   0.200   0.000    0.00
 154.000    6.87   23.87    0.49   0.000   0.200   0.000    0.00
 154.500    6.78   22.33    0.36   0.000   0.200   0.000    0.00
 155.000    6.54   22.03    0.04   0.000   0.200   0.000    0.00
 155.500    7.43   19.53   -0.02   0.000   0.200   0.000    0.00
 156.000    7.59   16.50    0.39   0.000   0.200   0.000    0.00
 156.500    7.96   16.30    0.32   0.000   0.200   0.000    0.00
 157.000    6.48   13.31    0.72   0.000   0.200   0.000    0.00
 157.500    7.23   12.67    1.38   0.000   0.200   0.000    0.00
 158.000    7.27   11.03    1.46   0.000   0.200   0.000    0.00
 158.500    6.83   12.04    2.24   0.000   0.200   0.000    0.00
 159.000    6.99   10.13    1.64   0.000   0.200   0.000    0.00
 159.500    6.86   16.68    0.99   0.000   0.200   0.000    0.00
 160.000    7.42   11.65    0.94   0.000   0.200   0.000    0.00
 160.500    7.58   16.82    1.71   0.000   0.200   0.000    0.00
 161.000    7.71   18.64    2.12   0.000   0.200   0.000    0.00
 161.500    8.20   15.34    1.82   0.000   0.200   0.000    0.00
 162.000    7.80    9.34    1.61   0.000   0.200   0.000    0.00
 162.500    7.47   11.59    1.00   0.000   0.200   0.000    0.00
 163.000    7.59    7.35    0.65   0.000   0.200   0.000    0.00
 163.500    8.28    1.42    0.53   0.000   0.200   0.000    0.00
 164.000    7.77    5.07    0.99   0.000   0.200   0.000    0.00
 164.500    7.85    5.24   -0.17   0.000   0.200   0.000    0.00
 165.000    7.33    7.79   -1.19   0.000   0.200   0.000    0.00
 165.500    7.54   14.15   -1.11   0.000   0.200   0.000    0.00
 166.000    8.12   15.74   -0.75   0.000   0.200   0.000    0.00
 166.500    7.79   19.14   -1.19   0.000   0.200   0.000    0.00
 167.000    7.67   22.82   -0.40   0.000   0.200   0.000    0.00
 167.500    7.20   20.49   -0.84   0.000   0.200   0.000    0.00
 168.000    7.19    9.28    0.25   0.000   0.200   0.000    0.00
 168.500    7.37    1.92    0.15   0.000   0.200   0.000    0.00
 169.000    7.68    0.62    0.38   0.000   0.200   0.000    0.00
 169.500    8.03    3.72    0.10   0.000   0.200   0.000    0.00
 170.000    7.79    1.17   -0.11   0.000   0.200   0.000    0.00
 170.500    8.53    2.72    0.56   0.000   0.200   0.000    0.00
 171.000    8.76    1.53    0.77   0.000   0.200   0.000    0.00
 171.500    9.07    5.18   -0.25   0.000   0.200   0.000    0.00
 172.000    8.70    5.27    0.37   0.000   0.200   0.000    0.00
 172.500    8.49    4.56    0.58   0.000   0.200   0.000    0.00
 173.000    8.49    8.89    0.29   0.000   0.200   0.000    0.00
 173.500    8.16    3.83    0.11   0.000   0.200   0.000    0.00
 174.000    7.51    3.25   -0.25   0.000   0.200   0.000    0.00
 174.500    7.91    5.83   -0.62   0.000   0.200   0.000    0.00
 175.000    8.68    3.70    0.57   0.000   0.200   0.000    0.00
 175.500    9.13    8.26    0.54   0.000   0.200   0.000    0.00
 176.000    8.74    9.40    0.36   0.000   0.200   0.000    0.00
 176.500    7.63    4.85    0.02   0.000   0.200   0.000    0.00
 177.000    6.73    4.91   -0.43   0.000   0.200   0.000    0.00
 177.500    6.95   10.62   -0.98   0.000   0.200   0.000    0.00
 178.000    7.52   10.38   -0.14   0.000   0.200   0.000    0.00
 178.500    7.65    7.83   -0.15   0.000   0.200   0.000    0.00
 179.000    7.87    3.86    0.36   0.000   0.200   0.000    0.00
 179.500    7.05    3.24    0.74   0.000   0.200   0.000    0.00
 180.000    7.43    3.22    0.87   0.000   0.200   0.000    0.00
 180.500    7.58   -2.22    0.59   0.000   0.200   0.000    0.00
 181.000    7.44   -1.67    0.16   0.000   0.200   0.000    0.00
 181.500    8.27    1.27   -0.27   0.000   0.200   0.000    0.00
 182.000    9.91   -1.97    0.16   0.000   0.200   0.000    0.00
 182.500    9.73    2.79    0.35   0.000   0.200   0.000    0.00
 183.000    9.76    2.31    0.33   0.000   0.200   0.000    0.00
 183.500    9.43    2.52    0.07   0.000   0.200   0.000    0.00
 184.000    8.87   -2.67    1.44   0.000   0.200   0.000    0.00
 184.500    8.58   -1.02    1.47   0.000   0.200   0.000    0.00
 185.000    9.55   -3.42    0.08   0.000   0.200   0.000    0.00
 185.500    9.41    0.07   -0.13   0.000   0.200   0.000    0.00
 186.000    9.98    3.78    0.05   0.000   0.200   0.000    0.00
 186.500    9.94    0.74    0.89   0.000   0.200   0.000    0.00
 187.000    9.67   -3.00    0.76   0.000   0.200   0.000    0.00
 187.500    9.03   -0.97    1.15   0.000   0.200   0.000    0.00
 188.000    9.39   -0.77    0.90   0.000   0.200   0.000    0.00
 188.500    9.01    3.21    0.69   0.000   0.200   0.000    0.00
 189.000    9.20   -3.59    0.43   0.000   0.200   0.000    0.00
 189.500    9.29   -1.76    0.73   0.000   0.200   0.000    0.00
 190.000    9.50    1.03    1.67   0.000   0.200   0.000    0.00
 190.500    8.99    1.07    1.43   0.000   0.200   0.000    0.00
 191.000    8.97    1.68    0.76   0.000   0.200   0.000    0.00
 191.500    8.78    2.57    0.11   0.000   0.200   0.000    0.00
 192.000    8.34    3.86    0.15   0.000   0.200   0.000    0.00
 192.500    8.26    6.77    0.99   0.000   0.200   0.000    0.00
 193.000    8.61   10.22    0.59   0.000   0.200   0.000    0.00
 193.500    8.79   15.65   -0.70   0.000   0.200   0.000    0.00
 194.000    9.22   12.41    0.04   0.000   0.200   0.000    0.00
 194.500    9.48    6.23   -0.22   0.000   0.200   0.000    0.00
 195.000    9.54    8.52   -0.08   0.000   0.200   0.000    0.00
 195.500    9.91    8.26    1.05   0.000   0.200   0.000    0.00
 196.000    9.80   13.09    0.21   0.000   0.200   0.000    0.00
 196.500   10.46   13.29   -0.31   0.000   0.200   0.000    0.00
 197.000   11.20    9.45   -0.68   0.000   0.200   0.000    0.00
 197.500   10.99    7.92   -0.04   0.000   0.200   0.000    0.00
 198.000   11.14   10.52    0.32   0.000   0.200   0.000    0.00
 198.500   11.33   10.49   -0.01   0.000   0.200   0.000    0.00
 199.000   10.66   12.48   -0.09   0.000   0.200   0.000    0.00
 199.500    9.78   10.07   -0.34   0.000   0.200   0.000    0.00
 200.000   10.48    7.19   -0.51   0.000   0.200   0.000    0.00
 200.500   11.00   12.33   -0.33   0.000   0.200   0.000    0.00
 201.000   10.61   15.57   -0.27   0.000   0.200   0.000    0.00
 201.500   10.33    9.99    0.61   0.000   0.200   0.000    0.00
 202.000   10.77   12.86   -0.01   0.000   0.200   0.000    0.00
 202.500   10.31   12.65    0.28   0.000   0.200   0.000    0.00
 203.000   10.62    7.61    0.08   0.000   0.200   0.000    0.00
 203.500   10.24    6.92    0.42   0.000   0.200   0.000    0.00
 204.000   10.74   10.61   -0.79   0.000   0.200   0.000    0.00
 204.500    9.91   11.19   -0.12   0.000   0.200   0.000    0.00
 205.000    9.49   10.79    0.62   0.000   0.200   0.000    0.00
 205.500   10.49    9.63    0.01   0.000   0.200   0.000    0.00
 206.000   11.09   11.27    0.81   0.000   0.200   0.000    0.00
 206.500   11.33    9.54    1.35   0.000   0.200   0.000    0.00
 207.000   11.20   10.63    1.66   0.000   0.200   0.000    0.00
 207.500   11.91   13.91    1.62   0.000   0.200   0.000    0.00
 208.000   10.98   14.62    1.56   0.000   0.200   0.000    0.00
 208.500   10.66   13.45    0.64   0.000   0.200   0.000    0.00
 209.000   11.31   14.09    0.48   0.000   0.200   0.000    0.00
 209.500   11.84   16.80    0.51   0.000   0.200   0.000    0.00
 210.000   11.68   12.79    0.40   0.000   0.200   0.000    0.00
 210.500   11.27   11.49    0.94   0.000   0.200   0.000    0.00
 211.000   10.48   12.16    0.93   0.000   0.200   0.000    0.00
 211.500   11.05   10.55    1.52   0.000   0.200   0.000    0.00
 212.000   11.44    5.35    1.55   0.000   0.200   0.000    0.00
 212.500   11.32    3.10    1.21   0.000   0.200   0.000    0.00
 213.000   11.37    2.70    0.18   0.000   0.200   0.000    0.00
 213.500   11.19    2.94   -0.42   0.000   0.200   0.000    0.00
 214.000   10.61    2.14   -0.85   0.000   0.200   0.000    0.00
 214.500   10.16    0.55    0.32   0.000   0.200   0.000    0.00
 215.000   10.46    4.32    0.04   0.000   0.200   0.000    0.00
 215.500   10.76    1.58    0.99   0.000   0.200   0.000    0.00
 216.000   10.91   -2.38    0.18   0.000   0.200   0.000    0.00
 216.500   10.68    0.65    0.08   0.000   0.200   0.000    0.00
 217.000   10.81   -0.21   -0.19   0.000   0.200   0.000    0.00
 217.500   10.79    0.72   -0.49   0.000   0.200   0.000    0.00
 218.000   11.13    2.01    0.16   0.000   0.200   0.000    0.00
 218.500   10.72   -2.05   -0.14   0.000   0.200   0.000    0.00
 219.000   10.47   -2.82    0.37   0.000   0.200   0.000    0.00
 219.500   11.12   -3.29   -0.30   0.000   0.200   0.000    0.00
 220.000   12.21   -2.99   -0.64   0.000   0.200   0.000    0.00
 220.500   11.49   -7.41   -1.23   0.000   0.200   0.000    0.00
 221.000   11.20   -6.44   -1.28   0.000   0.200   0.000    0.00
 221.500   11.08   -3.27   -1.49   0.000   0.200   0.000    0.00
 222.000   10.57   -1.88   -1.63   0.000   0.200   0.000    0.00
 222.500   11.09   -1.97   -1.55   0.000   0.200   0.000    0.00
 223.000   11.87    0.82   -0.19   0.000   0.200   0.000    0.00
 223.500   11.57   -1.88   -0.05   0.000   0.200   0.000    0.00