! This hub-height wind-speed file was generated by TurbSim (v1.06.00, 21-Sep-2012) on 03-Jul-2017 at 18:34:46.
!
! The requested statistics for this data were:
!    Mean Total Wind Speed =    7.001 m/s
!    Turbulence Intensity  =   24.798%
!
!   Time  HorSpd  WndDir  VerSpd  HorShr  VerShr  LnVShr  GstSpd
!  (sec)   (m/s)   (deg)   (m/s)     (-)     (-)     (-)   (m/s)
   0.000    9.46    9.26    1.45   0.000   0.200   0.000    0.00
   2.000    9.46   11.54    0.52   0.000   0.200   0.000    0.00
   4.000    8.47   12.42   -0.27   0.000   0.200   0.000    0.00
   6.000    8.73   14.01   -0.43   0.000   0.200   0.000    0.00
   8.000    6.58    8.03    0.17   0.000   0.200   0.000    0.00
  10.000    6.90   19.56   -0.61   0.000   0.200   0.000    0.00
  12.000    6.86   19.98   -0.06   0.000   0.200   0.000    0.00
  14.000    6.62   17.49   -0.11   0.000   0.200   0.000    0.00
  16.000    5.68   20.02   -0.11   0.000   0.200   0.000    0.00
  18.000    6.79   20.76    0.36   0.000   0.200   0.000    0.00
  20.000    6.80   17.97   -0.32   0.000   0.200   0.000    0.00
  22.000    7.17   11.28   -0.45   0.000   0.200   0.000    0.00
  24.000    6.71   11.81    0.21   0.000   0.200   0.000    0.00
  26.000    5.95   10.28    0.40   0.000   0.200   0.000    0.00
  28.000    7.37   23.46   -1.09   0.000   0.200   0.000    0.00
  30.000    7.55   24.71   -0.69   0.000   0.200   0.000    0.00
  32.000    7.78   13.88   -0.04   0.000   0.200   0.000    0.00
  34.000    7.71   11.49   -0.74   0.000   0.200   0.000    0.00
  36.000    7.38    6.59    1.18   0.000   0.200   0.000    0.00
  38.000    6.64    7.77    0.80   0.000   0.200   0.000    0.00
  40.000    6.43    3.79    0.03   0.000   0.200   0.000    0.00
  42.000    6.98   -2.64    0.44   0.000   0.200   0.000    0.00
  44.000    7.30   -0.48    1.63   0.000   0.200   0.000    0.00
  46.000    7.36    1.37    0.23   0.000   0.200   0.000    0.00
  48.000    8.98    3.28    1.22   0.000   0.200   0.000    0.00
  50.000    9.98    2.81    0.64   0.000   0.200   0.000    0.00
  52.000    9.49   -2.44   -0.41   0.000   0.200   0.000    0.00
  54.000    8.88   -1.63   -0.41   0.000   0.200   0.000    0.00
  56.000    8.33    1.64    0.14   0.000   0.200   0.000    0.00
  58.000    7.29   10.03    1.00   0.000   0.200   0.000    0.00
  60.000    8.43   11.52    1.52   0.000   0.200   0.000    0.00
  62.000    7.90   18.12    0.42   0.000   0.200   0.000    0.00
  64.000    7.27    3.40   -0.01   0.000   0.200   0.000    0.00
  66.000    6.50    5.31    0.81   0.000   0.200   0.000    0.00
  68.000    7.31    7.64    1.19   0.000   0.200   0.000    0.00
  70.000    7.40    3.14    0.66   0.000   0.200   0.000    0.00
  72.000    6.43   -4.44    0.54   0.000   0.200   0.000    0.00
  74.000    6.93   -5.31    0.28   0.000   0.200   0.000    0.00
  76.000    6.82   -5.21    0.28   0.000   0.200   0.000    0.00
  78.000    6.41    0.35    0.05   0.000   0.200   0.000    0.00
  80.000    7.38   -1.95    0.50   0.000   0.200   0.000    0.00
  82.000    7.44    1.63    0.73   0.000   0.200   0.000    0.00
  84.000    6.59  -10.27    0.27   0.000   0.200   0.000    0.00
  86.000    6.83   -1.04    1.24   0.000   0.200   0.000    0.00
  88.000    7.28    3.75    0.40   0.000   0.200   0.000    0.00
  90.000    8.04    1.56    0.65   0.000   0.200   0.000    0.00
  92.000    8.39   -5.64    0.61   0.000   0.200   0.000    0.00
  94.000    8.42  -10.54    1.22   0.000   0.200   0.000    0.00
  96.000    8.54   -5.17    0.69   0.000   0.200   0.000    0.00
  98.000    8.47    5.57    1.03   0.000   0.200   0.000    0.00
 100.000    8.49   -4.40    0.70   0.000   0.200   0.000    0.00
 102.000    8.96    2.77    0.30   0.000   0.200   0.000    0.00
 104.000    9.50    9.82   -0.41   0.000   0.200   0.000    0.00
 106.000   10.19   10.59    0.21   0.000   0.200   0.000    0.00
 108.000   10.64    7.59    0.93   0.000   0.200   0.000    0.00
 110.000    9.78    8.23    0.19   0.000   0.200   0.000    0.00
 112.000   10.09   11.38   -0.99   0.000   0.200   0.000    0.00
 114.000    9.67    2.12   -0.63   0.000   0.200   0.000    0.00
 116.000   11.24   -4.38   -0.52   0.000   0.200   0.000    0.00
 118.000    9.97   -1.33   -0.98   0.000   0.200   0.000    0.00
 120.000    9.67   -1.69   -0.73   0.000   0.200   0.000    0.00
 122.000    8.86   -0.07    0.07   0.000   0.200   0.000    0.00
 124.000    7.27   -5.08   -0.05   0.000   0.200   0.000    0.00
 126.000    7.91    5.29   -0.41   0.000   0.200   0.000    0.00
 128.000    8.73   24.83   -0.03   0.000   0.200   0.000    0.00
 130.000    9.41   25.01   -0.72   0.000   0.200   0.000    0.00
 132.000    9.67   19.48   -1.83   0.000   0.200   0.000    0.00
 134.000    8.99   10.37   -1.38   0.000   0.200   0.000    0.00
 136.000    7.91    8.01   -0.73   0.000   0.200   0.000    0.00
 138.000    9.31    5.10   -0.89   0.000   0.200   0.000    0.00
 140.000    8.85    6.50   -0.61   0.000   0.200   0.000    0.00
 142.000    7.81    9.69    0.25   0.000   0.200   0.000    0.00
 144.000    8.27   10.40    0.28   0.000   0.200   0.000    0.00
 146.000    7.69    6.03    0.73   0.000   0.200   0.000    0.00
 148.000    7.67    3.93   -0.13   0.000   0.200   0.000    0.00
 150.000    8.25   -1.96   -1.88   0.000   0.200   0.000    0.00
 152.000    7.47    4.12   -0.70   0.000   0.200   0.000    0.00
 154.000    7.15    9.59   -1.61   0.000   0.200   0.000    0.00
 156.000    6.53    0.31   -0.56   0.000   0.200   0.000    0.00
 158.000    7.16   -4.72   -0.13   0.000   0.200   0.000    0.00
 160.000    6.71   -4.00   -0.17   0.000   0.200   0.000    0.00
 162.000    6.65  -13.55    0.18   0.000   0.200   0.000    0.00
 164.000    7.66   -9.67   -0.39   0.000   0.200   0.000    0.00
 166.000    7.91  -11.98    0.20   0.000   0.200   0.000    0.00
 168.000    7.96   -3.95    0.16   0.000   0.200   0.000    0.00
 170.000    8.70  -11.09   -0.44   0.000   0.200   0.000    0.00
 172.000    9.57   -4.92    0.20   0.000   0.200   0.000    0.00
 174.000    9.61   -4.24   -0.15   0.000   0.200   0.000    0.00
 176.000    9.77   -2.09   -0.30   0.000   0.200   0.000    0.00
 178.000    9.70    0.78    0.05   0.000   0.200   0.000    0.00
 180.000    9.08   -9.27    0.74   0.000   0.200   0.000    0.00
 182.000    9.69  -11.42    0.45   0.000   0.200   0.000    0.00
 184.000    9.86  -13.89    0.04   0.000   0.200   0.000    0.00
 186.000    9.28   -8.04    0.89   0.000   0.200   0.000    0.00
 188.000    9.42   -6.32    0.82   0.000   0.200   0.000    0.00
 190.000   10.27   -0.97    0.05   0.000   0.200   0.000    0.00
 192.000    8.60   -0.16    0.39   0.000   0.200   0.000    0.00
 194.000    7.31    0.21    1.57   0.000   0.200   0.000    0.00
 196.000    6.25   -1.35    0.77   0.000   0.200   0.000    0.00
 198.000    6.90   -3.91   -0.01   0.000   0.200   0.000    0.00
 200.000    6.61  -10.31   -0.59   0.000   0.200   0.000    0.00
 202.000    6.88    2.07    0.30   0.000   0.200   0.000    0.00
 204.000    7.16    8.55    0.28   0.000   0.200   0.000    0.00
 206.000    7.06   -1.24    0.33   0.000   0.200   0.000    0.00
 208.000    8.12   -1.55   -0.33   0.000   0.200   0.000    0.00
 210.000    7.38    2.09    0.56   0.000   0.200   0.000    0.00
 212.000    6.92   -4.00    1.26   0.000   0.200   0.000    0.00
 214.000    6.31   -9.89   -0.66   0.000   0.200   0.000    0.00
 216.000    6.06   -6.68    0.71   0.000   0.200   0.000    0.00
 218.000    5.88  -18.08    0.26   0.000   0.200   0.000    0.00
 220.000    6.58  -16.54    0.78   0.000   0.200   0.000    0.00
 222.000    6.16  -16.03    0.05   0.000   0.200   0.000    0.00
 224.000    6.31  -12.97   -0.21   0.000   0.200   0.000    0.00
 226.000    7.12   -5.49   -0.09   0.000   0.200   0.000    0.00
 228.000    7.61   -7.04    0.76   0.000   0.200   0.000    0.00
 230.000    6.69   -6.10   -0.32   0.000   0.200   0.000    0.00
 232.000    7.33    5.52    0.88   0.000   0.200   0.000    0.00
 234.000    6.24    3.51    0.64   0.000   0.200   0.000    0.00
 236.000    5.75   -5.10    1.83   0.000   0.200   0.000    0.00
 238.000    5.79   -0.77   -0.07   0.000   0.200   0.000    0.00
 240.000    4.95   11.27    0.20   0.000   0.200   0.000    0.00
 242.000    5.66   11.00    1.10   0.000   0.200   0.000    0.00
 244.000    6.89    4.99   -0.09   0.000   0.200   0.000    0.00
 246.000    7.18   -7.49   -0.47   0.000   0.200   0.000    0.00
 248.000    6.60    4.11   -0.94   0.000   0.200   0.000    0.00
 250.000    6.74    3.51   -0.65   0.000   0.200   0.000    0.00
 252.000    8.20   -1.19   -0.20   0.000   0.200   0.000    0.00
 254.000    8.58    5.04    0.23   0.000   0.200   0.000    0.00
 256.000    8.94    2.05   -0.56   0.000   0.200   0.000    0.00
 258.000    9.13    1.95   -0.61   0.000   0.200   0.000    0.00
 260.000    8.17    3.87   -0.17   0.000   0.200   0.000    0.00
 262.000    8.00    9.88   -0.27   0.000   0.200   0.000    0.00
 264.000    8.78   16.09    1.13   0.000   0.200   0.000    0.00
 266.000    8.66   12.74    1.14   0.000   0.200   0.000    0.00
 268.000    8.87   21.48    0.98   0.000   0.200   0.000    0.00
 270.000    7.89   19.02    0.56   0.000   0.200   0.000    0.00
 272.000    9.20   14.08   -0.11   0.000   0.200   0.000    0.00
 274.000    9.11   14.11   -0.24   0.000   0.200   0.000    0.00
 276.000    7.65   13.23   -0.86   0.000   0.200   0.000    0.00
 278.000    6.02   10.64    0.31   0.000   0.200   0.000    0.00
 280.000    7.21   18.53    1.20   0.000   0.200   0.000    0.00
 282.000    6.96   15.84    1.00   0.000   0.200   0.000    0.00
 284.000    6.61   12.68    0.14   0.000   0.200   0.000    0.00
 286.000    7.07    9.64   -0.60   0.000   0.200   0.000    0.00
 288.000    7.93    6.20    0.14   0.000   0.200   0.000    0.00
 290.000    8.45   12.09   -0.23   0.000   0.200   0.000    0.00
 292.000    7.09   13.64   -0.18   0.000   0.200   0.000    0.00
 294.000    6.38   21.66   -0.15   0.000   0.200   0.000    0.00
 296.000    7.83   10.69   -0.87   0.000   0.200   0.000    0.00
 298.000    7.33    5.76    0.91   0.000   0.200   0.000    0.00
 300.000    7.53    5.10    0.93   0.000   0.200   0.000    0.00
 302.000    6.98    5.64    0.68   0.000   0.200   0.000    0.00
 304.000    7.38   -6.15    1.08   0.000   0.200   0.000    0.00
 306.000    8.08    5.69   -0.15   0.000   0.200   0.000    0.00
 308.000    8.45    1.15    0.05   0.000   0.200   0.000    0.00
 310.000    7.88   -5.72   -0.30   0.000   0.200   0.000    0.00
 312.000    8.24    0.68   -1.07   0.000   0.200   0.000    0.00
 314.000    6.69   -3.44   -0.48   0.000   0.200   0.000    0.00
 316.000    5.88    6.22   -0.39   0.000   0.200   0.000    0.00
 318.000    6.01    7.05   -0.03   0.000   0.200   0.000    0.00
 320.000    6.60    5.93   -0.17   0.000   0.200   0.000    0.00
 322.000    6.23   -0.73   -0.11   0.000   0.200   0.000    0.00
 324.000    5.37    8.16   -0.24   0.000   0.200   0.000    0.00
 326.000    5.83   13.49    0.51   0.000   0.200   0.000    0.00
 328.000    6.23    8.87   -0.13   0.000   0.200   0.000    0.00
 330.000    7.15   -4.81   -0.36   0.000   0.200   0.000    0.00
 332.000    6.48  -17.64   -0.29   0.000   0.200   0.000    0.00
 334.000    7.24  -17.81    1.14   0.000   0.200   0.000    0.00
 336.000    8.01  -17.74    0.83   0.000   0.200   0.000    0.00
 338.000    8.21  -14.40   -0.32   0.000   0.200   0.000    0.00
 340.000    7.75  -18.63   -0.68   0.000   0.200   0.000    0.00
 342.000    6.65   -6.49    0.86   0.000   0.200   0.000    0.00
 344.000    6.44   -5.96    0.98   0.000   0.200   0.000    0.00
 346.000    6.39   -3.17    0.49   0.000   0.200   0.000    0.00
 348.000    8.21   -5.73    0.71   0.000   0.200   0.000    0.00
 350.000    7.39    5.46    0.54   0.000   0.200   0.000    0.00
 352.000    6.72    2.80   -0.88   0.000   0.200   0.000    0.00
 354.000    6.90    7.63   -0.69   0.000   0.200   0.000    0.00
 356.000    6.78    7.94   -0.46   0.000   0.200   0.000    0.00
 358.000    6.73    1.73   -0.93   0.000   0.200   0.000    0.00
 360.000    6.61    5.34    0.76   0.000   0.200   0.000    0.00
 362.000    7.21   -0.07    0.59   0.000   0.200   0.000    0.00
 364.000    6.26    2.12    0.28   0.000   0.200   0.000    0.00
 366.000    5.22    9.75    0.18   0.000   0.200   0.000    0.00
 368.000    5.44  -11.10    0.43   0.000   0.200   0.000    0.00
 370.000    6.80  -13.99    0.67   0.000   0.200   0.000    0.00
 372.000    6.32   -8.62   -0.33   0.000   0.200   0.000    0.00
 374.000    5.44  -15.34    0.41   0.000   0.200   0.000    0.00
 376.000    5.37  -22.43    0.42   0.000   0.200   0.000    0.00
 378.000    3.63  -37.11    0.17   0.000   0.200   0.000    0.00
 380.000    3.65  -19.47   -0.56   0.000   0.200   0.000    0.00
 382.000    4.62  -22.48    0.28   0.000   0.200   0.000    0.00
 384.000    3.99  -13.84    0.15   0.000   0.200   0.000    0.00
 386.000    4.23   -9.14   -1.01   0.000   0.200   0.000    0.00
 388.000    4.24   -1.90   -0.74   0.000   0.200   0.000    0.00
 390.000    4.58  -20.54   -0.54   0.000   0.200   0.000    0.00
 392.000    4.88  -30.57   -0.18   0.000   0.200   0.000    0.00
 394.000    4.69  -25.97    0.58   0.000   0.200   0.000    0.00
 396.000    5.03  -23.00    0.38   0.000   0.200   0.000    0.00
 398.000    6.28  -26.41    0.16   0.000   0.200   0.000    0.00
 400.000    5.82   -6.94    0.43   0.000   0.200   0.000    0.00
 402.000    6.03  -11.83    1.38   0.000   0.200   0.000    0.00
 404.000    5.53  -11.84    0.79   0.000   0.200   0.000    0.00
 406.000    5.30  -19.09    0.33   0.000   0.200   0.000    0.00
 408.000    4.60  -23.66   -1.14   0.000   0.200   0.000    0.00
 410.000    5.04  -13.66   -0.65   0.000   0.200   0.000    0.00
 412.000    4.31  -12.34   -0.10   0.000   0.200   0.000    0.00
 414.000    6.48   -7.62    0.00   0.000   0.200   0.000    0.00
 416.000    5.80  -18.65   -0.11   0.000   0.200   0.000    0.00
 418.000    4.81  -13.51   -0.74   0.000   0.200   0.000    0.00
 420.000    4.44   -6.58   -1.15   0.000   0.200   0.000    0.00
 422.000    4.11  -19.09   -1.00   0.000   0.200   0.000    0.00
 424.000    3.85  -18.53   -1.64   0.000   0.200   0.000    0.00
 426.000    4.17  -10.40   -2.44   0.000   0.200   0.000    0.00
 428.000    3.52    3.72   -1.34   0.000   0.200   0.000    0.00
 430.000    2.94    9.24   -1.47   0.000   0.200   0.000    0.00
 432.000    3.52    6.47   -1.14   0.000   0.200   0.000    0.00
 434.000    3.95   11.42   -0.63   0.000   0.200   0.000    0.00
 436.000    4.98   -4.65   -0.72   0.000   0.200   0.000    0.00
 438.000    3.74    3.37    0.31   0.000   0.200   0.000    0.00
 440.000    3.85   12.33    0.03   0.000   0.200   0.000    0.00
 442.000    4.42    1.40    0.84   0.000   0.200   0.000    0.00
 444.000    4.41   11.03    0.48   0.000   0.200   0.000    0.00
 446.000    3.97    8.16    0.09   0.000   0.200   0.000    0.00
 448.000    2.77  -18.71    0.17   0.000   0.200   0.000    0.00
 450.000    3.60  -35.40    0.51   0.000   0.200   0.000    0.00
 452.000    4.21  -21.43   -0.02   0.000   0.200   0.000    0.00
 454.000    4.85  -27.43   -0.02   0.000   0.200   0.000    0.00
 456.000    4.25   -8.62   -0.10   0.000   0.200   0.000    0.00
 458.000    2.79  -20.69    0.58   0.000   0.200   0.000    0.00
 460.000    2.10  -33.40    0.02   0.000   0.200   0.000    0.00
 462.000    3.83  -22.04   -0.80   0.000   0.200   0.000    0.00
 464.000    4.17  -12.32    0.20   0.000   0.200   0.000    0.00
 466.000    4.40  -10.09    1.29   0.000   0.200   0.000    0.00
 468.000    4.73  -15.99    1.20   0.000   0.200   0.000    0.00
 470.000    5.47  -22.10    1.07   0.000   0.200   0.000    0.00
 472.000    5.06   -5.53    0.16   0.000   0.200   0.000    0.00
 474.000    5.12    7.47   -0.11   0.000   0.200   0.000    0.00
 476.000    4.50    0.30   -0.86   0.000   0.200   0.000    0.00
 478.000    3.79    6.13   -0.63   0.000   0.200   0.000    0.00
 480.000    4.81    6.18    0.37   0.000   0.200   0.000    0.00
 482.000    5.11   -2.07   -0.31   0.000   0.200   0.000    0.00
 484.000    4.67    4.09   -0.90   0.000   0.200   0.000    0.00
 486.000    5.52   -5.30   -0.81   0.000   0.200   0.000    0.00
 488.000    5.30  -21.68   -0.08   0.000   0.200   0.000    0.00
 490.000    6.60  -15.61   -0.97   0.000   0.200   0.000    0.00
 492.000    6.53   -5.16   -1.15   0.000   0.200   0.000    0.00
 494.000    6.30   -8.41    0.19   0.000   0.200   0.000    0.00
 496.000    6.45    2.85   -0.64   0.000   0.200   0.000    0.00
 498.000    7.00    6.37   -0.27   0.000   0.200   0.000    0.00
 500.000    8.50  -10.20   -0.35   0.000   0.200   0.000    0.00
 502.000    9.33  -11.71   -1.14   0.000   0.200   0.000    0.00
 504.000    8.30  -17.78   -1.64   0.000   0.200   0.000    0.00
 506.000    8.79  -11.25   -1.13   0.000   0.200   0.000    0.00
 508.000    8.67    0.14   -0.46   0.000   0.200   0.000    0.00
 510.000    8.25   -2.64   -0.42   0.000   0.200   0.000    0.00
 512.000    6.02   -8.95    0.61   0.000   0.200   0.000    0.00
 514.000    7.08   -0.74   -0.52   0.000   0.200   0.000    0.00
 516.000    8.26   -0.99   -0.51   0.000   0.200   0.000    0.00
 518.000    6.44   11.73   -0.72   0.000   0.200   0.000    0.00
 520.000    6.46    9.16    0.31   0.000   0.200   0.000    0.00
 522.000    7.49   -1.75    0.55   0.000   0.200   0.000    0.00
 524.000    8.09  -10.24    0.90   0.000   0.200   0.000    0.00
 526.000    8.96   -4.43    0.96   0.000   0.200   0.000    0.00
 528.000    8.89    2.45    0.62   0.000   0.200   0.000    0.00
 530.000   10.08   -5.07    1.04   0.000   0.200   0.000    0.00
 532.000   10.38   -4.86    1.07   0.000   0.200   0.000    0.00
 534.000   10.30    4.08   -0.34   0.000   0.200   0.000    0.00
 536.000   10.63   -1.14   -1.88   0.000   0.200   0.000    0.00
 538.000   10.11   -2.04   -1.25   0.000   0.200   0.000    0.00
 540.000   10.06    1.83   -1.47   0.000   0.200   0.000    0.00
 542.000    8.72   -3.38   -0.86   0.000   0.200   0.000    0.00
 544.000    9.14   -0.73   -1.30   0.000   0.200   0.000    0.00
 546.000    8.60   -0.20   -1.41   0.000   0.200   0.000    0.00
 548.000    8.28    3.82   -0.28   0.000   0.200   0.000    0.00
 550.000    6.94    3.97   -0.69   0.000   0.200   0.000    0.00
 552.000    6.58    0.65   -0.10   0.000   0.200   0.000    0.00
 554.000    6.16   -1.12   -0.03   0.000   0.200   0.000    0.00
 556.000    6.73   -9.15   -0.49   0.000   0.200   0.000    0.00
 558.000    8.39  -14.26    0.04   0.000   0.200   0.000    0.00
 560.000    7.06   -8.58    0.17   0.000   0.200   0.000    0.00
 562.000    6.90    9.72   -0.10   0.000   0.200   0.000    0.00
 564.000    6.22    6.44   -0.40   0.000   0.200   0.000    0.00
 566.000    5.83    6.58   -0.71   0.000   0.200   0.000    0.00
 568.000    6.60    7.98   -0.41   0.000   0.200   0.000    0.00
 570.000    5.68   14.07    0.06   0.000   0.200   0.000    0.00
 572.000    6.31    4.19   -0.04   0.000   0.200   0.000    0.00
 574.000    6.78    8.42   -0.31   0.000   0.200   0.000    0.00
 576.000    7.72   12.07   -0.74   0.000   0.200   0.000    0.00
 578.000    7.70    7.40   -1.39   0.000   0.200   0.000    0.00
 580.000    8.02    8.18   -0.99   0.000   0.200   0.000    0.00
 582.000    8.01    1.41    0.15   0.000   0.200   0.000    0.00
 584.000    8.11    6.15    0.71   0.000   0.200   0.000    0.00
 586.000    8.82   -0.41    0.87   0.000   0.200   0.000    0.00
 588.000    8.32    5.93   -0.54   0.000   0.200   0.000    0.00
 590.000    7.32   -0.34   -0.62   0.000   0.200   0.000    0.00
 592.000    8.03  -12.37   -1.13   0.000   0.200   0.000    0.00
 594.000    8.75  -12.37   -0.36   0.000   0.200   0.000    0.00
 596.000    7.96  -16.27    0.22   0.000   0.200   0.000    0.00
 598.000    8.11   -8.26    0.05   0.000   0.200   0.000    0.00
 600.000    8.40   -8.33   -0.06   0.000   0.200   0.000    0.00
 602.000    8.83   -2.65    0.41   0.000   0.200   0.000    0.00
 604.000    9.76   -7.50    0.39   0.000   0.200   0.000    0.00
 606.000   10.56   -7.09    0.78   0.000   0.200   0.000    0.00
 608.000   10.16   -7.89    1.03   0.000   0.200   0.000    0.00
 610.000    9.03  -10.51    0.52   0.000   0.200   0.000    0.00
